LAMMPS (29 Aug 2024 - Update 2)
# Tersoff potential example: crystalline silicon

units           metal
atom_style      atomic
boundary        p p p

# ---- System setup ----
read_data	MoSe2.data
Reading data file ...
  orthogonal box = (0 0 -3.8) to (5.890845 3.401081 3.8)
  reading atoms ...
  6 atoms
replicate	9 15 1
Replication is creating a 9x15x1 = 135 times larger system...
  orthogonal box = (0 0 -3.8) to (53.017605 51.016215 3.8)
  810 atoms
  replicate CPU = 0.000 seconds
# ---- Potential ----
pair_style      tersoff
pair_coeff      * * Potential.tersoff Mo Se

# ---- Settings ----
neighbor        2 bin
neigh_modify    every 10 delay 0 check yes

# ---- Minimization ----
reset_timestep  0

fix		3 all box/relax x 0.0 y 0.0
thermo          10
thermo_style    custom step pe lx ly lz press

# ---- Dynamics ----
#timestep        0.001
#fix             1 all nvt temp 1.0 1.0 0.1
#run             1000

dump            DYN all custom 1000 dump.emin.lammpstrj id type x y z xu yu zu
dump_modify     DYN sort id flush yes

min_style       cg
minimize        0 0 10000 100000
 (src/min.cpp:219)
Step         PotEng           Lx             Ly             Lz           Press
0  -4057.2832      53.017605      51.016215      7.6           -78331.272
Averages over the last 501 of 1001 rows, steps 5000 to 10000:
PotEng Lx Ly Lz Press
-4132.17 51.3349 49.397 7.6 1.91781e-10
Loop time of 105.467 on 1 procs for 10000 steps with 810 atoms

Minimization stats:
  Stopping criterion = max iterations
  Energy initial, next-to-last, final =
  Force two-norm initial, final = 1018.7622 2.2966252e-11
  Force max component initial, final = 719.84246 1.5868332e-11
  Final line search alpha, max atom move = 1 1.5868332e-11
  Iterations, force evaluations = 10000 18977

write_data      MoSe2_tersoff.data
System init for write_data ...
