LAMMPS (29 Aug 2024 - Update 2)
#!/bin/bash
units           metal
atom_style      atomic
boundary        p p p

# ---- System setup ----
read_data	MoSe2_tersoff.data
Reading data file ...
  orthogonal box = (0.84137701 0.80961581 -10) to (52.176228 50.206599 10)
  reading atoms ...
  810 atoms
  reading velocities ...
  810 velocities

# ---- Potential ----
pair_style      tersoff
pair_coeff      * * Potential.tersoff Mo Se

# ---- Settings ----
neighbor        2 bin
neigh_modify    every 10 delay 0 check yes

velocity        all create 300.0 12345 mom yes rot yes dist gaussian loop all
fix		1 all langevin 300.0 300.0 0.1 298932
fix		2 all nve/limit 0.1

timestep        0.001

thermo          10
thermo_style    custom step pe ke etotal temp lx ly lz press

shell		mkdir coord
dump            1 all custom 100 coord/dump.*.lammpstrj id type x y z xu yu zu
dump_modify     1 sort id flush yes pad 9

# ---- Dynamics ----
run             50000
Step         PotEng         KinEng         TotEng          Temp            Lx             Ly             Lz           Press
0  -4132.1652      31.371437     -4100.7937      300            51.334851      49.396983      20             660.70985
Averages over the last 2501 of 5001 rows, steps 25000 to 50000:
PotEng KinEng TotEng Temp Lx Ly Lz Press
-4101.17 31.421 -4069.75 300.474 51.3349 49.397 20 580.684
Loop time of 331.331 on 1 procs for 50000 steps with 810 atoms

write_data      MoSe2_nve.data
System init for write_data ...
